
#======================================================================
# CRYSTAL DATA
#----------------------------------------------------------------------
data_VESTA_phase_1

_chemical_name_common                  'OS_NI_II                              '
_cell_length_a                         11.981786
_cell_length_b                         17.368168
_cell_length_c                         18.099810
_cell_angle_alpha                      90.000000
_cell_angle_beta                       99.705475
_cell_angle_gamma                      90.000000
_cell_volume                           3712.690576
_space_group_name_H-M_alt              'P 1'
_space_group_IT_number                 1

loop_
_space_group_symop_operation_xyz
   'x, y, z'

loop_
   _atom_site_label
   _atom_site_occupancy
   _atom_site_fract_x
   _atom_site_fract_y
   _atom_site_fract_z
   _atom_site_adp_type
   _atom_site_B_iso_or_equiv
   _atom_site_type_symbol
   Al1        1.0     0.763730     0.446248     0.562950    Biso  1.000000 Al
   Al2        1.0     0.236270     0.553752     0.437050    Biso  1.000000 Al
   Al3        1.0     0.236270     0.946248     0.937050    Biso  1.000000 Al
   Al4        1.0     0.763730     0.053752     0.062950    Biso  1.000000 Al
   Al5        1.0     -0.000000     0.500000     0.500000    Biso  1.000000 Al
   Al6        1.0     -0.000000     -0.000000     -0.000000    Biso  1.000000 Al
   Al7        1.0     0.500000     0.500000     0.500000    Biso  1.000000 Al
   Al8        1.0     0.500000     -0.000000     -0.000000    Biso  1.000000 Al
   O1         1.0     0.876399     0.369423     0.597553    Biso  1.000000 O
   O2         1.0     0.123601     0.630577     0.402447    Biso  1.000000 O
   O3         1.0     0.123601     0.869423     0.902447    Biso  1.000000 O
   O4         1.0     0.876399     0.130577     0.097553    Biso  1.000000 O
   O5         1.0     0.321279     0.904311     0.866231    Biso  1.000000 O
   O6         1.0     0.678721     0.095689     0.133769    Biso  1.000000 O
   O7         1.0     0.678721     0.404311     0.633769    Biso  1.000000 O
   O8         1.0     0.321279     0.595689     0.366231    Biso  1.000000 O
   O9         1.0     0.846114     0.483770     0.490011    Biso  1.000000 O
   O10        1.0     0.153886     0.516230     0.509989    Biso  1.000000 O
   O11        1.0     0.153886     0.983770     0.009989    Biso  1.000000 O
   O12        1.0     0.846114     0.016230     0.990011    Biso  1.000000 O
   O13        1.0     0.158673     0.015091     0.863360    Biso  1.000000 O
   O14        1.0     0.841327     0.984909     0.136640    Biso  1.000000 O
   O15        1.0     0.841327     0.515091     0.636640    Biso  1.000000 O
   O16        1.0     0.158673     0.484909     0.363360    Biso  1.000000 O
   O17        1.0     0.652485     0.519862     0.532951    Biso  1.000000 O
   O18        1.0     0.347515     0.480138     0.467049    Biso  1.000000 O
   O19        1.0     0.347515     0.019862     0.967049    Biso  1.000000 O
   O20        1.0     0.652485     0.980138     0.032951    Biso  1.000000 O
   O21        1.0     0.033860     0.398856     0.547147    Biso  1.000000 O
   O22        1.0     0.966140     0.601144     0.452853    Biso  1.000000 O
   O23        1.0     0.966140     0.898856     0.952853    Biso  1.000000 O
   O24        1.0     0.033860     0.101144     0.047147    Biso  1.000000 O
   O25        1.0     0.301137     0.628646     0.510503    Biso  1.000000 O
   O26        1.0     0.698863     0.371354     0.489497    Biso  1.000000 O
   O27        1.0     0.698863     0.128646     0.989497    Biso  1.000000 O
   O28        1.0     0.301137     0.871354     0.010503    Biso  1.000000 O
   O29        1.0     0.994282     0.045527     0.903373    Biso  1.000000 O
   O30        1.0     0.005718     0.954473     0.096627    Biso  1.000000 O
   O31        1.0     0.005718     0.545527     0.596627    Biso  1.000000 O
   O32        1.0     0.994282     0.454473     0.403373    Biso  1.000000 O
   O33        1.0     0.465722     0.576485     0.570810    Biso  1.000000 O
   O34        1.0     0.534278     0.423515     0.429190    Biso  1.000000 O
   O35        1.0     0.534278     0.076485     0.929190    Biso  1.000000 O
   O36        1.0     0.465722     0.923515     0.070810    Biso  1.000000 O
   O37        1.0     0.501598     0.922075     0.926618    Biso  1.000000 O
   O38        1.0     0.498402     0.077925     0.073382    Biso  1.000000 O
   O39        1.0     0.498402     0.422075     0.573382    Biso  1.000000 O
   O40        1.0     0.501598     0.577925     0.426618    Biso  1.000000 O
   H1         1.0     0.817596     0.462430     0.440901    Biso  1.000000 H
   H2         1.0     0.182404     0.537570     0.559099    Biso  1.000000 H
   H3         1.0     0.182404     0.962430     0.059099    Biso  1.000000 H
   H4         1.0     0.817596     0.037570     0.940901    Biso  1.000000 H
   H5         1.0     0.679555     0.561978     0.505523    Biso  1.000000 H
   H6         1.0     0.320445     0.438022     0.494477    Biso  1.000000 H
   H7         1.0     0.320445     0.061978     0.994477    Biso  1.000000 H
   H8         1.0     0.679555     0.938022     0.005523    Biso  1.000000 H
   H9         1.0     0.659421     0.725958     0.793630    Biso  1.000000 H
   H10        1.0     0.340579     0.274042     0.206370    Biso  1.000000 H
   H11        1.0     0.340579     0.225958     0.706370    Biso  1.000000 H
   H12        1.0     0.659421     0.774042     0.293630    Biso  1.000000 H
   H13        1.0     0.203414     0.308007     0.601546    Biso  1.000000 H
   H14        1.0     0.796586     0.691993     0.398454    Biso  1.000000 H
   H15        1.0     0.796586     0.808007     0.898454    Biso  1.000000 H
   H16        1.0     0.203414     0.191993     0.101546    Biso  1.000000 H
   H17        1.0     0.913782     0.233265     0.684968    Biso  1.000000 H
   H18        1.0     0.086218     0.766734     0.315032    Biso  1.000000 H
   H19        1.0     0.086218     0.733266     0.815032    Biso  1.000000 H
   H20        1.0     0.913782     0.266735     0.184968    Biso  1.000000 H
   H21        1.0     0.320374     0.808115     0.738521    Biso  1.000000 H
   H22        1.0     0.679626     0.191885     0.261479    Biso  1.000000 H
   H23        1.0     0.679626     0.308115     0.761479    Biso  1.000000 H
   H24        1.0     0.320374     0.691885     0.238521    Biso  1.000000 H
   H25        1.0     0.047492     0.865757     0.207415    Biso  1.000000 H
   H26        1.0     0.952508     0.134243     0.792585    Biso  1.000000 H
   H27        1.0     0.952508     0.365757     0.292585    Biso  1.000000 H
   H28        1.0     0.047492     0.634243     0.707415    Biso  1.000000 H
   H29        1.0     0.805515     0.897715     0.237219    Biso  1.000000 H
   H30        1.0     0.194485     0.102285     0.762781    Biso  1.000000 H
   H31        1.0     0.194485     0.397715     0.262781    Biso  1.000000 H
   H32        1.0     0.805515     0.602285     0.737219    Biso  1.000000 H
   H33        1.0     0.545948     0.849345     0.180746    Biso  1.000000 H
   H34        1.0     0.454052     0.150655     0.819254    Biso  1.000000 H
   H35        1.0     0.454052     0.349345     0.319254    Biso  1.000000 H
   H36        1.0     0.545948     0.650655     0.680746    Biso  1.000000 H
   H37        1.0     0.315185     0.776532     0.116582    Biso  1.000000 H
   H38        1.0     0.684815     0.223468     0.883418    Biso  1.000000 H
   H39        1.0     0.684815     0.276532     0.383418    Biso  1.000000 H
   H40        1.0     0.315185     0.723468     0.616582    Biso  1.000000 H
   N1         1.0     0.582382     0.754092     0.790787    Biso  1.000000 N
   N2         1.0     0.417618     0.245908     0.209213    Biso  1.000000 N
   N3         1.0     0.417618     0.254092     0.709213    Biso  1.000000 N
   N4         1.0     0.582382     0.745908     0.290787    Biso  1.000000 N
   N5         1.0     0.576592     0.807239     0.842945    Biso  1.000000 N
   N6         1.0     0.423408     0.192761     0.157055    Biso  1.000000 N
   N7         1.0     0.423408     0.307239     0.657055    Biso  1.000000 N
   N8         1.0     0.576592     0.692761     0.342945    Biso  1.000000 N
   N9         1.0     0.185844     0.217280     0.670357    Biso  1.000000 N
   N10        1.0     0.814156     0.782720     0.329643    Biso  1.000000 N
   N11        1.0     0.814156     0.717280     0.829643    Biso  1.000000 N
   N12        1.0     0.185844     0.282720     0.170357    Biso  1.000000 N
   N13        1.0     0.148081     0.277006     0.626719    Biso  1.000000 N
   N14        1.0     0.851919     0.722994     0.373281    Biso  1.000000 N
   N15        1.0     0.851919     0.777006     0.873281    Biso  1.000000 N
   N16        1.0     0.148081     0.222994     0.126719    Biso  1.000000 N
   C1         1.0     0.999031     0.237589     0.672809    Biso  1.000000 C
   C2         1.0     0.000969     0.762411     0.327191    Biso  1.000000 C
   C3         1.0     0.000969     0.737589     0.827191    Biso  1.000000 C
   C4         1.0     0.999031     0.262411     0.172809    Biso  1.000000 C
   C5         1.0     0.976981     0.358526     0.586508    Biso  1.000000 C
   C6         1.0     0.023019     0.641474     0.413492    Biso  1.000000 C
   C7         1.0     0.023019     0.858526     0.913492    Biso  1.000000 C
   C8         1.0     0.976981     0.141474     0.086508    Biso  1.000000 C
   C9         1.0     0.385864     0.625720     0.564377    Biso  1.000000 C
   C10        1.0     0.614136     0.374280     0.435623    Biso  1.000000 C
   C11        1.0     0.614136     0.125720     0.935623    Biso  1.000000 C
   C12        1.0     0.385864     0.874280     0.064377    Biso  1.000000 C
   C13        1.0     0.065613     0.051714     0.858070    Biso  1.000000 C
   C14        1.0     0.934387     0.948286     0.141930    Biso  1.000000 C
   C15        1.0     0.934387     0.551714     0.641930    Biso  1.000000 C
   C16        1.0     0.065613     0.448286     0.358070    Biso  1.000000 C
   C17        1.0     0.427690     0.891446     0.876496    Biso  1.000000 C
   C18        1.0     0.572310     0.108554     0.123504    Biso  1.000000 C
   C19        1.0     0.572310     0.391446     0.623504    Biso  1.000000 C
   C20        1.0     0.427690     0.608554     0.376496    Biso  1.000000 C
   C21        1.0     0.407837     0.797935     0.763414    Biso  1.000000 C
   C22        1.0     0.592163     0.202065     0.236586    Biso  1.000000 C
   C23        1.0     0.592163     0.297935     0.736586    Biso  1.000000 C
   C24        1.0     0.407837     0.702065     0.263414    Biso  1.000000 C
   C25        1.0     0.095192     0.191924     0.699647    Biso  1.000000 C
   C26        1.0     0.904808     0.808076     0.300353    Biso  1.000000 C
   C27        1.0     0.904808     0.691924     0.800353    Biso  1.000000 C
   C28        1.0     0.095192     0.308076     0.199647    Biso  1.000000 C
   C29        1.0     0.036172     0.292055     0.626389    Biso  1.000000 C
   C30        1.0     0.963828     0.707945     0.373611    Biso  1.000000 C
   C31        1.0     0.963828     0.792055     0.873611    Biso  1.000000 C
   C32        1.0     0.036172     0.207945     0.126389    Biso  1.000000 C
   C33        1.0     0.468905     0.834323     0.827056    Biso  1.000000 C
   C34        1.0     0.531095     0.165677     0.172944    Biso  1.000000 C
   C35        1.0     0.531095     0.334323     0.672944    Biso  1.000000 C
   C36        1.0     0.468905     0.665677     0.327056    Biso  1.000000 C
   C37        1.0     0.483938     0.745728     0.740309    Biso  1.000000 C
   C38        1.0     0.516062     0.254272     0.259691    Biso  1.000000 C
   C39        1.0     0.516062     0.245728     0.759691    Biso  1.000000 C
   C40        1.0     0.483938     0.754272     0.240309    Biso  1.000000 C
   C41        1.0     0.888356     0.869700     0.246075    Biso  1.000000 C
   C42        1.0     0.111644     0.130300     0.753925    Biso  1.000000 C
   C43        1.0     0.111644     0.369700     0.253925    Biso  1.000000 C
   C44        1.0     0.888356     0.630300     0.746075    Biso  1.000000 C
   C45        1.0     0.964009     0.892122     0.203066    Biso  1.000000 C
   C46        1.0     0.035991     0.107878     0.796934    Biso  1.000000 C
   C47        1.0     0.035991     0.392122     0.296934    Biso  1.000000 C
   C48        1.0     0.964009     0.607878     0.703066    Biso  1.000000 C
   C49        1.0     0.475469     0.809153     0.180145    Biso  1.000000 C
   C50        1.0     0.524531     0.190847     0.819856    Biso  1.000000 C
   C51        1.0     0.524531     0.309153     0.319856    Biso  1.000000 C
   C52        1.0     0.475469     0.690847     0.680144    Biso  1.000000 C
   C53        1.0     0.387859     0.815227     0.122886    Biso  1.000000 C
   C54        1.0     0.612141     0.184773     0.877114    Biso  1.000000 C
   C55        1.0     0.612141     0.315227     0.377115    Biso  1.000000 C
   C56        1.0     0.387859     0.684773     0.622886    Biso  1.000000 C
